
     RDKit          3D

 15 15  0  0  0  0  0  0  0  0999 V2000
   -1.5652   -1.2868    1.2252 O   0  0  0  0  0  0  0  0  0  0  0  0
   -1.9223   -0.6837    0.2019 N   0  0  0  0  0  4  0  0  0  0  0  0
   -3.0681   -0.6860   -0.2663 O   0  0  0  0  0  1  0  0  0  0  0  0
   -0.8954    0.1045   -0.5204 C   0  0  0  0  0  0  0  0  0  0  0  0
   -0.4355    1.1649    0.4237 C   0  0  0  0  0  0  0  0  0  0  0  0
   -1.1649    2.0746    0.8154 O   0  0  0  0  0  0  0  0  0  0  0  0
    0.8717    1.1168    0.8306 N   0  0  0  0  0  0  0  0  0  0  0  0
    1.8146    0.2248    0.4203 C   0  0  0  0  0  0  0  0  0  0  0  0
    2.9789    0.2984    0.7926 O   0  0  0  0  0  0  0  0  0  0  0  0
    1.3973   -0.7384   -0.4464 N   0  0  0  0  0  0  0  0  0  0  0  0
    0.1406   -0.8684   -0.9758 C   0  0  0  0  0  0  0  0  0  0  0  0
   -0.0835   -1.7423   -1.8120 O   0  0  0  0  0  0  0  0  0  0  0  0
   -1.3500    0.5786   -1.3963 H   0  0  0  0  0  0  0  0  0  0  0  0
    1.1825    1.8397    1.4677 H   0  0  0  0  0  0  0  0  0  0  0  0
    2.0995   -1.3968   -0.7602 H   0  0  0  0  0  0  0  0  0  0  0  0
  1  2  2  0
  2  3  1  0
  2  4  1  0
  4  5  1  0
  5  6  2  0
  5  7  1  0
  7  8  1  0
  8  9  2  0
  8 10  1  0
 10 11  1  0
 11 12  2  0
 11  4  1  0
  4 13  1  0
  7 14  1  0
 10 15  1  0
M  CHG  2   2   1   3  -1
M  END
$$$$
