
     RDKit          3D

 15 15  0  0  0  0  0  0  0  0999 V2000
    3.1224   -0.2993    0.3406 O   0  0  0  0  0  0  0  0  0  0  0  0
    1.9270   -0.2425    0.6567 N   0  0  0  0  0  4  0  0  0  0  0  0
    1.4847   -0.3555    1.8100 O   0  0  0  0  0  1  0  0  0  0  0  0
    0.9464   -0.0214   -0.4329 C   0  0  0  0  0  0  0  0  0  0  0  0
    0.0686   -1.2279   -0.4622 C   0  0  0  0  0  0  0  0  0  0  0  0
    0.4783   -2.3464   -0.7688 O   0  0  0  0  0  0  0  0  0  0  0  0
   -1.2554   -1.0463   -0.1613 N   0  0  0  0  0  0  0  0  0  0  0  0
   -1.8676    0.1378    0.1146 C   0  0  0  0  0  0  0  0  0  0  0  0
   -3.0740    0.2110    0.3114 O   0  0  0  0  0  0  0  0  0  0  0  0
   -1.0685    1.2398    0.1345 N   0  0  0  0  0  0  0  0  0  0  0  0
    0.2734    1.2776   -0.1381 C   0  0  0  0  0  0  0  0  0  0  0  0
    0.8628    2.3570   -0.1604 O   0  0  0  0  0  0  0  0  0  0  0  0
    1.4755    0.0589   -1.3879 H   0  0  0  0  0  0  0  0  0  0  0  0
   -1.8498   -1.8656   -0.1861 H   0  0  0  0  0  0  0  0  0  0  0  0
   -1.5238    2.1228    0.3299 H   0  0  0  0  0  0  0  0  0  0  0  0
  1  2  2  0
  2  3  1  0
  2  4  1  0
  4  5  1  0
  5  6  2  0
  5  7  1  0
  7  8  1  0
  8  9  2  0
  8 10  1  0
 10 11  1  0
 11 12  2  0
 11  4  1  0
  4 13  1  0
  7 14  1  0
 10 15  1  0
M  CHG  2   2   1   3  -1
M  END
$$$$
