
     RDKit          3D

 31 33  0  0  0  0  0  0  0  0999 V2000
   -0.1296    4.0184    2.2830 Cl  0  0  0  0  0  0  0  0  0  0  0  0
   -0.8094    2.8152    1.2601 C   0  0  0  0  0  0  0  0  0  0  0  0
   -0.2220    1.5547    1.1892 C   0  0  0  0  0  0  0  0  0  0  0  0
   -0.7638    0.5724    0.3431 C   0  0  0  0  0  0  0  0  0  0  0  0
    0.0060   -0.6967    0.1540 C   0  0  0  0  0  0  0  0  0  0  0  0
   -0.5105   -1.8778    0.1080 N   0  0  0  0  0  0  0  0  0  0  0  0
   -1.9473   -2.0332    0.2587 C   0  0  0  0  0  0  0  0  0  0  0  0
   -2.3210   -3.3881    0.4461 O   0  0  0  0  0  0  0  0  0  0  0  0
   -2.6333   -1.4533   -1.0079 C   0  0  0  0  0  0  0  0  0  0  0  0
   -3.2436   -2.1479   -1.8242 O   0  0  0  0  0  0  0  0  0  0  0  0
   -2.6116   -0.0903   -1.1775 N   0  0  0  0  0  0  0  0  0  0  0  0
   -1.9379    0.8459   -0.3803 C   0  0  0  0  0  0  0  0  0  0  0  0
   -2.4874    2.1342   -0.3325 C   0  0  0  0  0  0  0  0  0  0  0  0
   -1.9287    3.1148    0.4902 C   0  0  0  0  0  0  0  0  0  0  0  0
    1.4925   -0.6093   -0.0133 C   0  0  0  0  0  0  0  0  0  0  0  0
    2.0790    0.4089   -0.7755 C   0  0  0  0  0  0  0  0  0  0  0  0
    3.4675    0.4625   -0.9141 C   0  0  0  0  0  0  0  0  0  0  0  0
    4.2693   -0.5024   -0.3041 C   0  0  0  0  0  0  0  0  0  0  0  0
    3.6866   -1.5287    0.4390 C   0  0  0  0  0  0  0  0  0  0  0  0
    2.2995   -1.5869    0.5808 C   0  0  0  0  0  0  0  0  0  0  0  0
    0.6683    1.3473    1.7793 H   0  0  0  0  0  0  0  0  0  0  0  0
   -2.3218   -1.5010    1.1406 H   0  0  0  0  0  0  0  0  0  0  0  0
   -1.9785   -3.8326   -0.3491 H   0  0  0  0  0  0  0  0  0  0  0  0
   -3.2711    0.2291   -1.8768 H   0  0  0  0  0  0  0  0  0  0  0  0
   -3.3798    2.3803   -0.9048 H   0  0  0  0  0  0  0  0  0  0  0  0
   -2.3798    4.1035    0.5347 H   0  0  0  0  0  0  0  0  0  0  0  0
    1.4715    1.1545   -1.2808 H   0  0  0  0  0  0  0  0  0  0  0  0
    3.9253    1.2515   -1.5060 H   0  0  0  0  0  0  0  0  0  0  0  0
    5.3501   -0.4615   -0.4171 H   0  0  0  0  0  0  0  0  0  0  0  0
    4.3111   -2.2881    0.9031 H   0  0  0  0  0  0  0  0  0  0  0  0
    1.8506   -2.3954    1.1539 H   0  0  0  0  0  0  0  0  0  0  0  0
  1  2  1  0
  2  3  2  0
  3  4  1  0
  4  5  1  0
  5  6  2  0
  6  7  1  0
  7  8  1  0
  7  9  1  0
  9 10  2  0
  9 11  1  0
 11 12  1  0
 12 13  1  0
 13 14  2  0
  5 15  1  0
 15 16  2  0
 16 17  1  0
 17 18  2  0
 18 19  1  0
 19 20  2  0
 14  2  1  0
 20 15  1  0
 12  4  2  0
  3 21  1  0
  7 22  1  0
  8 23  1  0
 11 24  1  0
 13 25  1  0
 14 26  1  0
 16 27  1  0
 17 28  1  0
 18 29  1  0
 19 30  1  0
 20 31  1  0
M  END
$$$$
