
     RDKit          3D

 31 33  0  0  0  0  0  0  0  0999 V2000
   -1.1245   -3.3005   -3.0363 Cl  0  0  0  0  0  0  0  0  0  0  0  0
   -1.4615   -2.2612   -1.7087 C   0  0  0  0  0  0  0  0  0  0  0  0
   -0.6278   -1.1762   -1.4501 C   0  0  0  0  0  0  0  0  0  0  0  0
   -0.8891   -0.3327   -0.3573 C   0  0  0  0  0  0  0  0  0  0  0  0
    0.1341    0.7008   -0.0050 C   0  0  0  0  0  0  0  0  0  0  0  0
   -0.1277    1.9130    0.3500 N   0  0  0  0  0  0  0  0  0  0  0  0
   -1.5108    2.3533    0.4147 C   0  0  0  0  0  0  0  0  0  0  0  0
   -1.6172    3.7596    0.5618 O   0  0  0  0  0  0  0  0  0  0  0  0
   -2.1942    1.6317    1.6078 C   0  0  0  0  0  0  0  0  0  0  0  0
   -2.5829    2.2191    2.6203 O   0  0  0  0  0  0  0  0  0  0  0  0
   -2.4346    0.2847    1.4855 N   0  0  0  0  0  0  0  0  0  0  0  0
   -2.0312   -0.5495    0.4334 C   0  0  0  0  0  0  0  0  0  0  0  0
   -2.8317   -1.6731    0.1867 C   0  0  0  0  0  0  0  0  0  0  0  0
   -2.5516   -2.5235   -0.8852 C   0  0  0  0  0  0  0  0  0  0  0  0
    1.5808    0.3129   -0.0455 C   0  0  0  0  0  0  0  0  0  0  0  0
    2.5175    1.2397   -0.5183 C   0  0  0  0  0  0  0  0  0  0  0  0
    3.8710    0.9034   -0.5652 C   0  0  0  0  0  0  0  0  0  0  0  0
    4.2930   -0.3528   -0.1306 C   0  0  0  0  0  0  0  0  0  0  0  0
    3.3653   -1.2721    0.3596 C   0  0  0  0  0  0  0  0  0  0  0  0
    2.0097   -0.9406    0.4089 C   0  0  0  0  0  0  0  0  0  0  0  0
    0.2349   -1.0023   -2.0900 H   0  0  0  0  0  0  0  0  0  0  0  0
   -2.0558    2.1126   -0.5052 H   0  0  0  0  0  0  0  0  0  0  0  0
   -1.1282    3.9419    1.3832 H   0  0  0  0  0  0  0  0  0  0  0  0
   -3.0857   -0.0627    2.1794 H   0  0  0  0  0  0  0  0  0  0  0  0
   -3.7057   -1.8797    0.8015 H   0  0  0  0  0  0  0  0  0  0  0  0
   -3.1952   -3.3786   -1.0785 H   0  0  0  0  0  0  0  0  0  0  0  0
    2.1959    2.2247   -0.8500 H   0  0  0  0  0  0  0  0  0  0  0  0
    4.5961    1.6244   -0.9347 H   0  0  0  0  0  0  0  0  0  0  0  0
    5.3488   -0.6112   -0.1637 H   0  0  0  0  0  0  0  0  0  0  0  0
    3.7010   -2.2443    0.7125 H   0  0  0  0  0  0  0  0  0  0  0  0
    1.3074   -1.6608    0.8191 H   0  0  0  0  0  0  0  0  0  0  0  0
  1  2  1  0
  2  3  2  0
  3  4  1  0
  4  5  1  0
  5  6  2  0
  6  7  1  0
  7  8  1  0
  7  9  1  0
  9 10  2  0
  9 11  1  0
 11 12  1  0
 12 13  1  0
 13 14  2  0
  5 15  1  0
 15 16  2  0
 16 17  1  0
 17 18  2  0
 18 19  1  0
 19 20  2  0
 14  2  1  0
 20 15  1  0
 12  4  2  0
  3 21  1  0
  7 22  1  0
  8 23  1  0
 11 24  1  0
 13 25  1  0
 14 26  1  0
 16 27  1  0
 17 28  1  0
 18 29  1  0
 19 30  1  0
 20 31  1  0
M  END
$$$$
