
     RDKit          3D

 31 33  0  0  0  0  0  0  0  0999 V2000
   -1.0020   -4.0847    1.9202 Cl  0  0  0  0  0  0  0  0  0  0  0  0
   -1.4319   -2.5898    1.1879 C   0  0  0  0  0  0  0  0  0  0  0  0
   -0.4852   -1.5744    1.0799 C   0  0  0  0  0  0  0  0  0  0  0  0
   -0.8261   -0.3564    0.4683 C   0  0  0  0  0  0  0  0  0  0  0  0
    0.2681    0.6293    0.2032 C   0  0  0  0  0  0  0  0  0  0  0  0
    0.1759    1.9043    0.3758 N   0  0  0  0  0  0  0  0  0  0  0  0
   -1.0666    2.4673    0.8760 C   0  0  0  0  0  0  0  0  0  0  0  0
   -0.9228    3.8263    1.2545 O   0  0  0  0  0  0  0  0  0  0  0  0
   -2.1442    2.3259   -0.2330 C   0  0  0  0  0  0  0  0  0  0  0  0
   -2.6382    3.2902   -0.8225 O   0  0  0  0  0  0  0  0  0  0  0  0
   -2.6116    1.0645   -0.5110 N   0  0  0  0  0  0  0  0  0  0  0  0
   -2.1435   -0.1432    0.0256 C   0  0  0  0  0  0  0  0  0  0  0  0
   -3.0692   -1.1927    0.0999 C   0  0  0  0  0  0  0  0  0  0  0  0
   -2.7167   -2.4109    0.6851 C   0  0  0  0  0  0  0  0  0  0  0  0
    1.5758    0.1174   -0.3195 C   0  0  0  0  0  0  0  0  0  0  0  0
    1.6257   -0.9025   -1.2781 C   0  0  0  0  0  0  0  0  0  0  0  0
    2.8600   -1.3570   -1.7470 C   0  0  0  0  0  0  0  0  0  0  0  0
    4.0417   -0.7890   -1.2703 C   0  0  0  0  0  0  0  0  0  0  0  0
    3.9942    0.2403   -0.3305 C   0  0  0  0  0  0  0  0  0  0  0  0
    2.7633    0.6981    0.1414 C   0  0  0  0  0  0  0  0  0  0  0  0
    0.5220   -1.7424    1.4559 H   0  0  0  0  0  0  0  0  0  0  0  0
   -1.4133    1.9472    1.7764 H   0  0  0  0  0  0  0  0  0  0  0  0
   -0.6177    4.2604    0.4387 H   0  0  0  0  0  0  0  0  0  0  0  0
   -3.4651    1.0732   -1.0565 H   0  0  0  0  0  0  0  0  0  0  0  0
   -4.0877   -1.0633   -0.2613 H   0  0  0  0  0  0  0  0  0  0  0  0
   -3.4527   -3.2085    0.7567 H   0  0  0  0  0  0  0  0  0  0  0  0
    0.7170   -1.3399   -1.6821 H   0  0  0  0  0  0  0  0  0  0  0  0
    2.9015   -2.1482   -2.4917 H   0  0  0  0  0  0  0  0  0  0  0  0
    5.0017   -1.1412   -1.6403 H   0  0  0  0  0  0  0  0  0  0  0  0
    4.9150    0.6917    0.0306 H   0  0  0  0  0  0  0  0  0  0  0  0
    2.7328    1.5077    0.8675 H   0  0  0  0  0  0  0  0  0  0  0  0
  1  2  1  0
  2  3  2  0
  3  4  1  0
  4  5  1  0
  5  6  2  0
  6  7  1  0
  7  8  1  0
  7  9  1  0
  9 10  2  0
  9 11  1  0
 11 12  1  0
 12 13  1  0
 13 14  2  0
  5 15  1  0
 15 16  2  0
 16 17  1  0
 17 18  2  0
 18 19  1  0
 19 20  2  0
 14  2  1  0
 20 15  1  0
 12  4  2  0
  3 21  1  0
  7 22  1  0
  8 23  1  0
 11 24  1  0
 13 25  1  0
 14 26  1  0
 16 27  1  0
 17 28  1  0
 18 29  1  0
 19 30  1  0
 20 31  1  0
M  END
$$$$
