
     RDKit          3D

 35 35  0  0  0  0  0  0  0  0999 V2000
   -0.9627    3.7672   -0.3580 S   0  0  0  0  0  0  0  0  0  0  0  0
    0.5514    4.6174   -0.8645 C   0  0  0  0  0  0  0  0  0  0  0  0
   -0.3522    2.1028   -0.1911 C   0  0  0  0  0  0  0  0  0  0  0  0
    0.9600    1.9052   -0.1383 N   0  0  0  0  0  0  0  0  0  0  0  0
    1.3306    0.6419   -0.0127 C   0  0  0  0  0  0  0  0  0  0  0  0
    2.6973    0.4368    0.0272 N   0  0  0  0  0  0  0  0  0  0  0  0
    3.2790   -0.6673    0.7854 C   0  0  0  0  0  0  0  0  0  0  0  0
    3.0598   -2.0187    0.1107 C   0  0  0  0  0  0  0  0  0  0  0  0
    2.8502   -0.6671    2.2505 C   0  0  0  0  0  0  0  0  0  0  0  0
    0.4843   -0.3739    0.0585 N   0  0  0  0  0  0  0  0  0  0  0  0
   -0.8054   -0.0751    0.0084 C   0  0  0  0  0  0  0  0  0  0  0  0
   -1.6673   -1.1608    0.1037 N   0  0  0  0  0  0  0  0  0  0  0  0
   -2.9366   -1.0530   -0.6071 C   0  0  0  0  0  0  0  0  0  0  0  0
   -3.3543   -2.4480   -1.0786 C   0  0  0  0  0  0  0  0  0  0  0  0
   -4.0086   -0.4834    0.3220 C   0  0  0  0  0  0  0  0  0  0  0  0
   -1.2749    1.1529   -0.1207 N   0  0  0  0  0  0  0  0  0  0  0  0
    0.9574    4.1768   -1.7795 H   0  0  0  0  0  0  0  0  0  0  0  0
    1.3036    4.5802   -0.0717 H   0  0  0  0  0  0  0  0  0  0  0  0
    0.3189    5.6671   -1.0641 H   0  0  0  0  0  0  0  0  0  0  0  0
    3.1206    1.3408    0.2082 H   0  0  0  0  0  0  0  0  0  0  0  0
    4.3629   -0.4933    0.7744 H   0  0  0  0  0  0  0  0  0  0  0  0
    3.3239   -1.9737   -0.9514 H   0  0  0  0  0  0  0  0  0  0  0  0
    3.6871   -2.7839    0.5810 H   0  0  0  0  0  0  0  0  0  0  0  0
    2.0240   -2.3619    0.1853 H   0  0  0  0  0  0  0  0  0  0  0  0
    3.4241   -1.4080    2.8174 H   0  0  0  0  0  0  0  0  0  0  0  0
    1.7899   -0.9105    2.3711 H   0  0  0  0  0  0  0  0  0  0  0  0
    3.0222    0.3136    2.7074 H   0  0  0  0  0  0  0  0  0  0  0  0
   -1.1041   -1.9769   -0.1131 H   0  0  0  0  0  0  0  0  0  0  0  0
   -2.8443   -0.4198   -1.4992 H   0  0  0  0  0  0  0  0  0  0  0  0
   -2.6048   -2.8680   -1.7586 H   0  0  0  0  0  0  0  0  0  0  0  0
   -3.4606   -3.1404   -0.2358 H   0  0  0  0  0  0  0  0  0  0  0  0
   -4.3096   -2.4102   -1.6126 H   0  0  0  0  0  0  0  0  0  0  0  0
   -4.9770   -0.4335   -0.1872 H   0  0  0  0  0  0  0  0  0  0  0  0
   -4.1277   -1.1032    1.2180 H   0  0  0  0  0  0  0  0  0  0  0  0
   -3.7570    0.5282    0.6556 H   0  0  0  0  0  0  0  0  0  0  0  0
  1  2  1  0
  1  3  1  0
  3  4  2  0
  4  5  1  0
  5  6  1  0
  6  7  1  0
  7  8  1  0
  7  9  1  0
  5 10  2  0
 10 11  1  0
 11 12  1  0
 12 13  1  0
 13 14  1  0
 13 15  1  0
 11 16  2  0
 16  3  1  0
  2 17  1  0
  2 18  1  0
  2 19  1  0
  6 20  1  0
  7 21  1  0
  8 22  1  0
  8 23  1  0
  8 24  1  0
  9 25  1  0
  9 26  1  0
  9 27  1  0
 12 28  1  0
 13 29  1  0
 14 30  1  0
 14 31  1  0
 14 32  1  0
 15 33  1  0
 15 34  1  0
 15 35  1  0
M  END
$$$$
