
     RDKit          3D

 35 35  0  0  0  0  0  0  0  0999 V2000
   -1.0508    3.7403    0.5061 S   0  0  0  0  0  0  0  0  0  0  0  0
    0.4364    4.4775    1.2248 C   0  0  0  0  0  0  0  0  0  0  0  0
   -0.4904    2.0674    0.2657 C   0  0  0  0  0  0  0  0  0  0  0  0
   -1.4390    1.1631    0.0607 N   0  0  0  0  0  0  0  0  0  0  0  0
   -1.0069   -0.0720   -0.1229 C   0  0  0  0  0  0  0  0  0  0  0  0
   -1.8991   -1.1109   -0.3577 N   0  0  0  0  0  0  0  0  0  0  0  0
   -3.2150   -0.9967    0.2620 C   0  0  0  0  0  0  0  0  0  0  0  0
   -4.1892   -0.3196   -0.7020 C   0  0  0  0  0  0  0  0  0  0  0  0
   -3.7207   -2.4011    0.6008 C   0  0  0  0  0  0  0  0  0  0  0  0
    0.2712   -0.4206   -0.1025 N   0  0  0  0  0  0  0  0  0  0  0  0
    1.1451    0.5544    0.1064 C   0  0  0  0  0  0  0  0  0  0  0  0
    2.5085    0.2875    0.1492 N   0  0  0  0  0  0  0  0  0  0  0  0
    2.9863   -0.8013   -0.6971 C   0  0  0  0  0  0  0  0  0  0  0  0
    3.0004   -2.1094    0.0941 C   0  0  0  0  0  0  0  0  0  0  0  0
    4.4048   -0.4707   -1.1677 C   0  0  0  0  0  0  0  0  0  0  0  0
    0.8142    1.8207    0.2931 N   0  0  0  0  0  0  0  0  0  0  0  0
    1.2612    4.4708    0.5068 H   0  0  0  0  0  0  0  0  0  0  0  0
    0.2245    5.5170    1.4901 H   0  0  0  0  0  0  0  0  0  0  0  0
    0.7338    3.9461    2.1333 H   0  0  0  0  0  0  0  0  0  0  0  0
   -1.3863   -1.9636   -0.1578 H   0  0  0  0  0  0  0  0  0  0  0  0
   -3.1682   -0.4301    1.2011 H   0  0  0  0  0  0  0  0  0  0  0  0
   -5.1915   -0.2624   -0.2645 H   0  0  0  0  0  0  0  0  0  0  0  0
   -3.8742    0.7005   -0.9433 H   0  0  0  0  0  0  0  0  0  0  0  0
   -4.2618   -0.8714   -1.6461 H   0  0  0  0  0  0  0  0  0  0  0  0
   -3.0428   -2.8983    1.3035 H   0  0  0  0  0  0  0  0  0  0  0  0
   -3.7875   -3.0294   -0.2946 H   0  0  0  0  0  0  0  0  0  0  0  0
   -4.7125   -2.3583    1.0631 H   0  0  0  0  0  0  0  0  0  0  0  0
    2.9703    1.1816    0.0186 H   0  0  0  0  0  0  0  0  0  0  0  0
    2.3625   -0.9165   -1.5932 H   0  0  0  0  0  0  0  0  0  0  0  0
    1.9955   -2.3934    0.4217 H   0  0  0  0  0  0  0  0  0  0  0  0
    3.3940   -2.9285   -0.5172 H   0  0  0  0  0  0  0  0  0  0  0  0
    3.6249   -2.0245    0.9907 H   0  0  0  0  0  0  0  0  0  0  0  0
    4.4135    0.4571   -1.7505 H   0  0  0  0  0  0  0  0  0  0  0  0
    5.0863   -0.3351   -0.3203 H   0  0  0  0  0  0  0  0  0  0  0  0
    4.8024   -1.2702   -1.8017 H   0  0  0  0  0  0  0  0  0  0  0  0
  1  2  1  0
  1  3  1  0
  3  4  2  0
  4  5  1  0
  5  6  1  0
  6  7  1  0
  7  8  1  0
  7  9  1  0
  5 10  2  0
 10 11  1  0
 11 12  1  0
 12 13  1  0
 13 14  1  0
 13 15  1  0
 11 16  2  0
 16  3  1  0
  2 17  1  0
  2 18  1  0
  2 19  1  0
  6 20  1  0
  7 21  1  0
  8 22  1  0
  8 23  1  0
  8 24  1  0
  9 25  1  0
  9 26  1  0
  9 27  1  0
 12 28  1  0
 13 29  1  0
 14 30  1  0
 14 31  1  0
 14 32  1  0
 15 33  1  0
 15 34  1  0
 15 35  1  0
M  END
$$$$
