
     RDKit          3D

 35 35  0  0  0  0  0  0  0  0999 V2000
   -1.1210    2.3935    2.7738 S   0  0  0  0  0  0  0  0  0  0  0  0
    0.2318    3.5915    2.8544 C   0  0  0  0  0  0  0  0  0  0  0  0
   -0.5433    1.3494    1.4520 C   0  0  0  0  0  0  0  0  0  0  0  0
    0.7265    1.4396    1.0743 N   0  0  0  0  0  0  0  0  0  0  0  0
    1.0721    0.6296    0.0882 C   0  0  0  0  0  0  0  0  0  0  0  0
    2.3928    0.7240   -0.3217 N   0  0  0  0  0  0  0  0  0  0  0  0
    3.0252   -0.4820   -0.8417 C   0  0  0  0  0  0  0  0  0  0  0  0
    4.3141   -0.0704   -1.5545 C   0  0  0  0  0  0  0  0  0  0  0  0
    3.3418   -1.4611    0.2888 C   0  0  0  0  0  0  0  0  0  0  0  0
    0.2448   -0.2225   -0.5018 N   0  0  0  0  0  0  0  0  0  0  0  0
   -0.9991   -0.2455   -0.0465 C   0  0  0  0  0  0  0  0  0  0  0  0
   -1.8404   -1.1585   -0.6703 N   0  0  0  0  0  0  0  0  0  0  0  0
   -3.2518   -0.7985   -0.7531 C   0  0  0  0  0  0  0  0  0  0  0  0
   -3.8335   -1.3885   -2.0401 C   0  0  0  0  0  0  0  0  0  0  0  0
   -4.0051   -1.3579    0.4537 C   0  0  0  0  0  0  0  0  0  0  0  0
   -1.4434    0.5269    0.9294 N   0  0  0  0  0  0  0  0  0  0  0  0
    0.3653    4.0929    1.8916 H   0  0  0  0  0  0  0  0  0  0  0  0
   -0.0101    4.3497    3.6043 H   0  0  0  0  0  0  0  0  0  0  0  0
    1.1658    3.1059    3.1503 H   0  0  0  0  0  0  0  0  0  0  0  0
    2.9050    1.2126    0.4041 H   0  0  0  0  0  0  0  0  0  0  0  0
    2.3850   -0.9740   -1.5845 H   0  0  0  0  0  0  0  0  0  0  0  0
    5.0093    0.4277   -0.8690 H   0  0  0  0  0  0  0  0  0  0  0  0
    4.8210   -0.9429   -1.9798 H   0  0  0  0  0  0  0  0  0  0  0  0
    4.0994    0.6275   -2.3714 H   0  0  0  0  0  0  0  0  0  0  0  0
    2.4285   -1.8029    0.7871 H   0  0  0  0  0  0  0  0  0  0  0  0
    3.9795   -0.9981    1.0503 H   0  0  0  0  0  0  0  0  0  0  0  0
    3.8603   -2.3452   -0.0970 H   0  0  0  0  0  0  0  0  0  0  0  0
   -1.3889   -1.3923   -1.5487 H   0  0  0  0  0  0  0  0  0  0  0  0
   -3.3858    0.2901   -0.8021 H   0  0  0  0  0  0  0  0  0  0  0  0
   -3.7287   -2.4791   -2.0636 H   0  0  0  0  0  0  0  0  0  0  0  0
   -4.8969   -1.1452   -2.1357 H   0  0  0  0  0  0  0  0  0  0  0  0
   -3.3160   -0.9878   -2.9188 H   0  0  0  0  0  0  0  0  0  0  0  0
   -5.0738   -1.1284    0.3848 H   0  0  0  0  0  0  0  0  0  0  0  0
   -3.8953   -2.4463    0.5209 H   0  0  0  0  0  0  0  0  0  0  0  0
   -3.6349   -0.9338    1.3923 H   0  0  0  0  0  0  0  0  0  0  0  0
  1  2  1  0
  1  3  1  0
  3  4  2  0
  4  5  1  0
  5  6  1  0
  6  7  1  0
  7  8  1  0
  7  9  1  0
  5 10  2  0
 10 11  1  0
 11 12  1  0
 12 13  1  0
 13 14  1  0
 13 15  1  0
 11 16  2  0
 16  3  1  0
  2 17  1  0
  2 18  1  0
  2 19  1  0
  6 20  1  0
  7 21  1  0
  8 22  1  0
  8 23  1  0
  8 24  1  0
  9 25  1  0
  9 26  1  0
  9 27  1  0
 12 28  1  0
 13 29  1  0
 14 30  1  0
 14 31  1  0
 14 32  1  0
 15 33  1  0
 15 34  1  0
 15 35  1  0
M  END
$$$$
