
     RDKit          3D

 35 35  0  0  0  0  0  0  0  0999 V2000
   -1.2877    3.7365    0.5826 S   0  0  0  0  0  0  0  0  0  0  0  0
    0.1057    4.5647    1.3847 C   0  0  0  0  0  0  0  0  0  0  0  0
   -0.6438    2.0797    0.5023 C   0  0  0  0  0  0  0  0  0  0  0  0
    0.6697    1.9183    0.3903 N   0  0  0  0  0  0  0  0  0  0  0  0
    1.0711    0.6606    0.3190 C   0  0  0  0  0  0  0  0  0  0  0  0
    2.4452    0.4856    0.2170 N   0  0  0  0  0  0  0  0  0  0  0  0
    2.9102   -0.6855   -0.5171 C   0  0  0  0  0  0  0  0  0  0  0  0
    4.2373   -0.3427   -1.1982 C   0  0  0  0  0  0  0  0  0  0  0  0
    3.1139   -1.8571    0.4435 C   0  0  0  0  0  0  0  0  0  0  0  0
    0.2538   -0.3835    0.3357 N   0  0  0  0  0  0  0  0  0  0  0  0
   -1.0395   -0.1175    0.4487 C   0  0  0  0  0  0  0  0  0  0  0  0
   -1.8734   -1.2227    0.4805 N   0  0  0  0  0  0  0  0  0  0  0  0
   -3.2189   -1.0773   -0.0576 C   0  0  0  0  0  0  0  0  0  0  0  0
   -3.1904   -1.0325   -1.5854 C   0  0  0  0  0  0  0  0  0  0  0  0
   -4.0503   -2.2701    0.4163 C   0  0  0  0  0  0  0  0  0  0  0  0
   -1.5405    1.1030    0.5245 N   0  0  0  0  0  0  0  0  0  0  0  0
    0.3559    4.0755    2.3303 H   0  0  0  0  0  0  0  0  0  0  0  0
   -0.1709    5.6012    1.5966 H   0  0  0  0  0  0  0  0  0  0  0  0
    0.9830    4.5730    0.7320 H   0  0  0  0  0  0  0  0  0  0  0  0
    2.8231    1.3785   -0.0815 H   0  0  0  0  0  0  0  0  0  0  0  0
    2.2016   -0.9712   -1.3054 H   0  0  0  0  0  0  0  0  0  0  0  0
    4.9961   -0.0407   -0.4675 H   0  0  0  0  0  0  0  0  0  0  0  0
    4.1086    0.4864   -1.9028 H   0  0  0  0  0  0  0  0  0  0  0  0
    4.6233   -1.2021   -1.7565 H   0  0  0  0  0  0  0  0  0  0  0  0
    3.5002   -2.7328   -0.0888 H   0  0  0  0  0  0  0  0  0  0  0  0
    3.8252   -1.6010    1.2370 H   0  0  0  0  0  0  0  0  0  0  0  0
    2.1766   -2.1497    0.9269 H   0  0  0  0  0  0  0  0  0  0  0  0
   -1.3420   -2.0219    0.1546 H   0  0  0  0  0  0  0  0  0  0  0  0
   -3.7015   -0.1701    0.3268 H   0  0  0  0  0  0  0  0  0  0  0  0
   -2.7113   -1.9259   -2.0015 H   0  0  0  0  0  0  0  0  0  0  0  0
   -2.6344   -0.1614   -1.9477 H   0  0  0  0  0  0  0  0  0  0  0  0
   -4.2057   -0.9709   -1.9911 H   0  0  0  0  0  0  0  0  0  0  0  0
   -5.0798   -2.1989    0.0501 H   0  0  0  0  0  0  0  0  0  0  0  0
   -3.6277   -3.2181    0.0643 H   0  0  0  0  0  0  0  0  0  0  0  0
   -4.0827   -2.3095    1.5109 H   0  0  0  0  0  0  0  0  0  0  0  0
  1  2  1  0
  1  3  1  0
  3  4  2  0
  4  5  1  0
  5  6  1  0
  6  7  1  0
  7  8  1  0
  7  9  1  0
  5 10  2  0
 10 11  1  0
 11 12  1  0
 12 13  1  0
 13 14  1  0
 13 15  1  0
 11 16  2  0
 16  3  1  0
  2 17  1  0
  2 18  1  0
  2 19  1  0
  6 20  1  0
  7 21  1  0
  8 22  1  0
  8 23  1  0
  8 24  1  0
  9 25  1  0
  9 26  1  0
  9 27  1  0
 12 28  1  0
 13 29  1  0
 14 30  1  0
 14 31  1  0
 14 32  1  0
 15 33  1  0
 15 34  1  0
 15 35  1  0
M  END
$$$$
