
     RDKit          3D

 35 35  0  0  0  0  0  0  0  0999 V2000
    0.1918    4.4874   -0.5189 S   0  0  0  0  0  0  0  0  0  0  0  0
   -1.2472    4.9299    0.4840 C   0  0  0  0  0  0  0  0  0  0  0  0
    0.1609    2.7146   -0.3520 C   0  0  0  0  0  0  0  0  0  0  0  0
    1.2778    2.0819   -0.6917 N   0  0  0  0  0  0  0  0  0  0  0  0
    1.2339    0.7674   -0.5699 C   0  0  0  0  0  0  0  0  0  0  0  0
    2.3942    0.0970   -0.9378 N   0  0  0  0  0  0  0  0  0  0  0  0
    2.7012   -1.1233   -0.1999 C   0  0  0  0  0  0  0  0  0  0  0  0
    2.1238   -2.3345   -0.9328 C   0  0  0  0  0  0  0  0  0  0  0  0
    4.2216   -1.2639   -0.0937 C   0  0  0  0  0  0  0  0  0  0  0  0
    0.1760    0.0983   -0.1353 N   0  0  0  0  0  0  0  0  0  0  0  0
   -0.8919    0.8170    0.1772 C   0  0  0  0  0  0  0  0  0  0  0  0
   -2.0470    0.2026    0.6462 N   0  0  0  0  0  0  0  0  0  0  0  0
   -2.3132   -1.1456    0.1547 C   0  0  0  0  0  0  0  0  0  0  0  0
   -1.7170   -2.1771    1.1129 C   0  0  0  0  0  0  0  0  0  0  0  0
   -3.8281   -1.3446    0.0639 C   0  0  0  0  0  0  0  0  0  0  0  0
   -0.9524    2.1340    0.0809 N   0  0  0  0  0  0  0  0  0  0  0  0
   -1.3265    6.0196    0.5293 H   0  0  0  0  0  0  0  0  0  0  0  0
   -1.1412    4.5515    1.5046 H   0  0  0  0  0  0  0  0  0  0  0  0
   -2.1673    4.5399    0.0397 H   0  0  0  0  0  0  0  0  0  0  0  0
    3.1247    0.8021   -0.9539 H   0  0  0  0  0  0  0  0  0  0  0  0
    2.3035   -1.0852    0.8227 H   0  0  0  0  0  0  0  0  0  0  0  0
    1.0332   -2.2796   -1.0065 H   0  0  0  0  0  0  0  0  0  0  0  0
    2.5170   -2.4056   -1.9533 H   0  0  0  0  0  0  0  0  0  0  0  0
    2.3745   -3.2619   -0.4071 H   0  0  0  0  0  0  0  0  0  0  0  0
    4.6531   -0.4115    0.4427 H   0  0  0  0  0  0  0  0  0  0  0  0
    4.6902   -1.3029   -1.0836 H   0  0  0  0  0  0  0  0  0  0  0  0
    4.4927   -2.1755    0.4490 H   0  0  0  0  0  0  0  0  0  0  0  0
   -2.7945    0.8763    0.5171 H   0  0  0  0  0  0  0  0  0  0  0  0
   -1.9027   -1.2943   -0.8526 H   0  0  0  0  0  0  0  0  0  0  0  0
   -2.1229   -2.0607    2.1243 H   0  0  0  0  0  0  0  0  0  0  0  0
   -0.6292   -2.0801    1.1851 H   0  0  0  0  0  0  0  0  0  0  0  0
   -1.9376   -3.1947    0.7738 H   0  0  0  0  0  0  0  0  0  0  0  0
   -4.2728   -0.6234   -0.6308 H   0  0  0  0  0  0  0  0  0  0  0  0
   -4.0692   -2.3506   -0.2950 H   0  0  0  0  0  0  0  0  0  0  0  0
   -4.3094   -1.2046    1.0385 H   0  0  0  0  0  0  0  0  0  0  0  0
  1  2  1  0
  1  3  1  0
  3  4  2  0
  4  5  1  0
  5  6  1  0
  6  7  1  0
  7  8  1  0
  7  9  1  0
  5 10  2  0
 10 11  1  0
 11 12  1  0
 12 13  1  0
 13 14  1  0
 13 15  1  0
 11 16  2  0
 16  3  1  0
  2 17  1  0
  2 18  1  0
  2 19  1  0
  6 20  1  0
  7 21  1  0
  8 22  1  0
  8 23  1  0
  8 24  1  0
  9 25  1  0
  9 26  1  0
  9 27  1  0
 12 28  1  0
 13 29  1  0
 14 30  1  0
 14 31  1  0
 14 32  1  0
 15 33  1  0
 15 34  1  0
 15 35  1  0
M  END
$$$$
