
     RDKit          3D

 35 35  0  0  0  0  0  0  0  0999 V2000
   -0.3473    2.8160    2.9303 S   0  0  0  0  0  0  0  0  0  0  0  0
   -1.8661    3.5783    2.3102 C   0  0  0  0  0  0  0  0  0  0  0  0
    0.0444    1.7540    1.5567 C   0  0  0  0  0  0  0  0  0  0  0  0
    1.3133    1.3781    1.4537 N   0  0  0  0  0  0  0  0  0  0  0  0
    1.5774    0.5797    0.4347 C   0  0  0  0  0  0  0  0  0  0  0  0
    2.9024    0.1955    0.3107 N   0  0  0  0  0  0  0  0  0  0  0  0
    3.1822   -1.1154   -0.2575 C   0  0  0  0  0  0  0  0  0  0  0  0
    4.6651   -1.1651   -0.6275 C   0  0  0  0  0  0  0  0  0  0  0  0
    2.8543   -2.2231    0.7437 C   0  0  0  0  0  0  0  0  0  0  0  0
    0.6677    0.1491   -0.4296 N   0  0  0  0  0  0  0  0  0  0  0  0
   -0.5713    0.5766   -0.2385 C   0  0  0  0  0  0  0  0  0  0  0  0
   -1.5053    0.1257   -1.1572 N   0  0  0  0  0  0  0  0  0  0  0  0
   -2.8676   -0.0901   -0.6891 C   0  0  0  0  0  0  0  0  0  0  0  0
   -2.9535   -1.3500    0.1724 C   0  0  0  0  0  0  0  0  0  0  0  0
   -3.7729   -0.2293   -1.9136 C   0  0  0  0  0  0  0  0  0  0  0  0
   -0.9378    1.3766    0.7486 N   0  0  0  0  0  0  0  0  0  0  0  0
   -1.6907    4.0671    1.3476 H   0  0  0  0  0  0  0  0  0  0  0  0
   -2.6616    2.8351    2.2061 H   0  0  0  0  0  0  0  0  0  0  0  0
   -2.2000    4.3364    3.0240 H   0  0  0  0  0  0  0  0  0  0  0  0
    3.3671    0.4130    1.1859 H   0  0  0  0  0  0  0  0  0  0  0  0
    2.6101   -1.2746   -1.1800 H   0  0  0  0  0  0  0  0  0  0  0  0
    4.9110   -0.3788   -1.3499 H   0  0  0  0  0  0  0  0  0  0  0  0
    4.9234   -2.1296   -1.0770 H   0  0  0  0  0  0  0  0  0  0  0  0
    5.3025   -1.0167    0.2516 H   0  0  0  0  0  0  0  0  0  0  0  0
    1.7875   -2.2333    0.9907 H   0  0  0  0  0  0  0  0  0  0  0  0
    3.4084   -2.0911    1.6799 H   0  0  0  0  0  0  0  0  0  0  0  0
    3.1096   -3.2057    0.3331 H   0  0  0  0  0  0  0  0  0  0  0  0
   -1.0823   -0.6423   -1.6671 H   0  0  0  0  0  0  0  0  0  0  0  0
   -3.2271    0.7721   -0.1136 H   0  0  0  0  0  0  0  0  0  0  0  0
   -2.3455   -1.2549    1.0783 H   0  0  0  0  0  0  0  0  0  0  0  0
   -3.9864   -1.5378    0.4839 H   0  0  0  0  0  0  0  0  0  0  0  0
   -2.5971   -2.2311   -0.3731 H   0  0  0  0  0  0  0  0  0  0  0  0
   -4.8157   -0.3767   -1.6136 H   0  0  0  0  0  0  0  0  0  0  0  0
   -3.7243    0.6712   -2.5359 H   0  0  0  0  0  0  0  0  0  0  0  0
   -3.4741   -1.0788   -2.5382 H   0  0  0  0  0  0  0  0  0  0  0  0
  1  2  1  0
  1  3  1  0
  3  4  2  0
  4  5  1  0
  5  6  1  0
  6  7  1  0
  7  8  1  0
  7  9  1  0
  5 10  2  0
 10 11  1  0
 11 12  1  0
 12 13  1  0
 13 14  1  0
 13 15  1  0
 11 16  2  0
 16  3  1  0
  2 17  1  0
  2 18  1  0
  2 19  1  0
  6 20  1  0
  7 21  1  0
  8 22  1  0
  8 23  1  0
  8 24  1  0
  9 25  1  0
  9 26  1  0
  9 27  1  0
 12 28  1  0
 13 29  1  0
 14 30  1  0
 14 31  1  0
 14 32  1  0
 15 33  1  0
 15 34  1  0
 15 35  1  0
M  END
$$$$
