
     RDKit          3D

 35 35  0  0  0  0  0  0  0  0999 V2000
    1.0674    3.8329    0.1472 S   0  0  0  0  0  0  0  0  0  0  0  0
   -0.1564    4.5734   -0.9599 C   0  0  0  0  0  0  0  0  0  0  0  0
    0.5063    2.1431    0.1525 C   0  0  0  0  0  0  0  0  0  0  0  0
    1.3811    1.2436    0.5825 N   0  0  0  0  0  0  0  0  0  0  0  0
    0.9468   -0.0045    0.5837 C   0  0  0  0  0  0  0  0  0  0  0  0
    1.7653   -1.0352    1.0169 N   0  0  0  0  0  0  0  0  0  0  0  0
    3.2023   -0.8831    0.8298 C   0  0  0  0  0  0  0  0  0  0  0  0
    3.9053   -1.9331    1.6913 C   0  0  0  0  0  0  0  0  0  0  0  0
    3.5824   -1.0712   -0.6389 C   0  0  0  0  0  0  0  0  0  0  0  0
   -0.2646   -0.3691    0.1902 N   0  0  0  0  0  0  0  0  0  0  0  0
   -1.0685    0.6026   -0.2186 C   0  0  0  0  0  0  0  0  0  0  0  0
   -2.3571    0.3201   -0.6562 N   0  0  0  0  0  0  0  0  0  0  0  0
   -3.0258   -0.8137   -0.0260 C   0  0  0  0  0  0  0  0  0  0  0  0
   -2.7814   -2.0830   -0.8421 C   0  0  0  0  0  0  0  0  0  0  0  0
   -4.5276   -0.5247    0.0365 C   0  0  0  0  0  0  0  0  0  0  0  0
   -0.7307    1.8804   -0.2535 N   0  0  0  0  0  0  0  0  0  0  0  0
   -0.1560    4.0713   -1.9315 H   0  0  0  0  0  0  0  0  0  0  0  0
    0.0982    5.6251   -1.1177 H   0  0  0  0  0  0  0  0  0  0  0  0
   -1.1573    4.5277   -0.5216 H   0  0  0  0  0  0  0  0  0  0  0  0
    1.3621   -1.9040    0.6840 H   0  0  0  0  0  0  0  0  0  0  0  0
    3.5427    0.1016    1.1736 H   0  0  0  0  0  0  0  0  0  0  0  0
    4.9932   -1.8497    1.5987 H   0  0  0  0  0  0  0  0  0  0  0  0
    3.6149   -2.9492    1.4009 H   0  0  0  0  0  0  0  0  0  0  0  0
    3.6451   -1.8048    2.7479 H   0  0  0  0  0  0  0  0  0  0  0  0
    3.1233   -0.3034   -1.2706 H   0  0  0  0  0  0  0  0  0  0  0  0
    3.2535   -2.0469   -1.0141 H   0  0  0  0  0  0  0  0  0  0  0  0
    4.6675   -1.0045   -0.7708 H   0  0  0  0  0  0  0  0  0  0  0  0
   -2.8600    1.2010   -0.6250 H   0  0  0  0  0  0  0  0  0  0  0  0
   -2.6778   -0.9625    1.0046 H   0  0  0  0  0  0  0  0  0  0  0  0
   -3.3099   -2.9353   -0.4020 H   0  0  0  0  0  0  0  0  0  0  0  0
   -1.7177   -2.3378   -0.8829 H   0  0  0  0  0  0  0  0  0  0  0  0
   -3.1291   -1.9644   -1.8747 H   0  0  0  0  0  0  0  0  0  0  0  0
   -4.7251    0.3743    0.6308 H   0  0  0  0  0  0  0  0  0  0  0  0
   -5.0671   -1.3585    0.4980 H   0  0  0  0  0  0  0  0  0  0  0  0
   -4.9452   -0.3585   -0.9630 H   0  0  0  0  0  0  0  0  0  0  0  0
  1  2  1  0
  1  3  1  0
  3  4  2  0
  4  5  1  0
  5  6  1  0
  6  7  1  0
  7  8  1  0
  7  9  1  0
  5 10  2  0
 10 11  1  0
 11 12  1  0
 12 13  1  0
 13 14  1  0
 13 15  1  0
 11 16  2  0
 16  3  1  0
  2 17  1  0
  2 18  1  0
  2 19  1  0
  6 20  1  0
  7 21  1  0
  8 22  1  0
  8 23  1  0
  8 24  1  0
  9 25  1  0
  9 26  1  0
  9 27  1  0
 12 28  1  0
 13 29  1  0
 14 30  1  0
 14 31  1  0
 14 32  1  0
 15 33  1  0
 15 34  1  0
 15 35  1  0
M  END
$$$$
