
     RDKit          3D

 35 35  0  0  0  0  0  0  0  0999 V2000
   -0.3322    3.1429    1.2560 S   0  0  0  0  0  0  0  0  0  0  0  0
    1.1865    3.7919    0.5178 C   0  0  0  0  0  0  0  0  0  0  0  0
   -0.2469    1.4472    0.7196 C   0  0  0  0  0  0  0  0  0  0  0  0
   -1.3552    0.7344    0.8711 N   0  0  0  0  0  0  0  0  0  0  0  0
   -1.2732   -0.5224    0.4700 C   0  0  0  0  0  0  0  0  0  0  0  0
   -2.3638   -1.3694    0.5835 N   0  0  0  0  0  0  0  0  0  0  0  0
   -3.6934   -0.7783    0.5062 C   0  0  0  0  0  0  0  0  0  0  0  0
   -4.7001   -1.8092    1.0185 C   0  0  0  0  0  0  0  0  0  0  0  0
   -4.0313   -0.3865   -0.9323 C   0  0  0  0  0  0  0  0  0  0  0  0
   -0.1827   -1.0669   -0.0520 N   0  0  0  0  0  0  0  0  0  0  0  0
    0.8744   -0.2745   -0.1585 C   0  0  0  0  0  0  0  0  0  0  0  0
    2.0035   -0.8655   -0.7133 N   0  0  0  0  0  0  0  0  0  0  0  0
    3.2939   -0.4004   -0.2156 C   0  0  0  0  0  0  0  0  0  0  0  0
    3.8187    0.7278   -1.1036 C   0  0  0  0  0  0  0  0  0  0  0  0
    4.2795   -1.5712   -0.2360 C   0  0  0  0  0  0  0  0  0  0  0  0
    0.8940    0.9931    0.2174 N   0  0  0  0  0  0  0  0  0  0  0  0
    1.1827    3.6521   -0.5669 H   0  0  0  0  0  0  0  0  0  0  0  0
    1.2512    4.8638    0.7242 H   0  0  0  0  0  0  0  0  0  0  0  0
    2.0675    3.3085    0.9492 H   0  0  0  0  0  0  0  0  0  0  0  0
   -2.1959   -2.1693   -0.0165 H   0  0  0  0  0  0  0  0  0  0  0  0
   -3.7713    0.1033    1.1545 H   0  0  0  0  0  0  0  0  0  0  0  0
   -4.4716   -2.0939    2.0516 H   0  0  0  0  0  0  0  0  0  0  0  0
   -5.7179   -1.4058    0.9964 H   0  0  0  0  0  0  0  0  0  0  0  0
   -4.6818   -2.7224    0.4127 H   0  0  0  0  0  0  0  0  0  0  0  0
   -5.0487    0.0135   -0.9970 H   0  0  0  0  0  0  0  0  0  0  0  0
   -3.9606   -1.2471   -1.6070 H   0  0  0  0  0  0  0  0  0  0  0  0
   -3.3476    0.3827   -1.3067 H   0  0  0  0  0  0  0  0  0  0  0  0
    1.8430   -1.8664   -0.6510 H   0  0  0  0  0  0  0  0  0  0  0  0
    3.2212   -0.0510    0.8227 H   0  0  0  0  0  0  0  0  0  0  0  0
    3.9132    0.4017   -2.1457 H   0  0  0  0  0  0  0  0  0  0  0  0
    3.1503    1.5942   -1.0922 H   0  0  0  0  0  0  0  0  0  0  0  0
    4.8036    1.0640   -0.7626 H   0  0  0  0  0  0  0  0  0  0  0  0
    4.3980   -1.9772   -1.2469 H   0  0  0  0  0  0  0  0  0  0  0  0
    3.9280   -2.3851    0.4079 H   0  0  0  0  0  0  0  0  0  0  0  0
    5.2651   -1.2585    0.1245 H   0  0  0  0  0  0  0  0  0  0  0  0
  1  2  1  0
  1  3  1  0
  3  4  2  0
  4  5  1  0
  5  6  1  0
  6  7  1  0
  7  8  1  0
  7  9  1  0
  5 10  2  0
 10 11  1  0
 11 12  1  0
 12 13  1  0
 13 14  1  0
 13 15  1  0
 11 16  2  0
 16  3  1  0
  2 17  1  0
  2 18  1  0
  2 19  1  0
  6 20  1  0
  7 21  1  0
  8 22  1  0
  8 23  1  0
  8 24  1  0
  9 25  1  0
  9 26  1  0
  9 27  1  0
 12 28  1  0
 13 29  1  0
 14 30  1  0
 14 31  1  0
 14 32  1  0
 15 33  1  0
 15 34  1  0
 15 35  1  0
M  END
$$$$
