
     RDKit          3D

 35 35  0  0  0  0  0  0  0  0999 V2000
   -0.9445    3.7147    0.8075 S   0  0  0  0  0  0  0  0  0  0  0  0
    0.5617    4.6123    0.3630 C   0  0  0  0  0  0  0  0  0  0  0  0
   -0.4317    2.0451    0.4615 C   0  0  0  0  0  0  0  0  0  0  0  0
    0.8653    1.7881    0.3371 N   0  0  0  0  0  0  0  0  0  0  0  0
    1.1603    0.5250    0.0808 C   0  0  0  0  0  0  0  0  0  0  0  0
    2.5154    0.2527   -0.0657 N   0  0  0  0  0  0  0  0  0  0  0  0
    2.9636   -1.0703    0.3571 C   0  0  0  0  0  0  0  0  0  0  0  0
    2.9387   -2.0335   -0.8299 C   0  0  0  0  0  0  0  0  0  0  0  0
    4.3920   -0.9557    0.8952 C   0  0  0  0  0  0  0  0  0  0  0  0
    0.2593   -0.4398   -0.0421 N   0  0  0  0  0  0  0  0  0  0  0  0
   -1.0082   -0.0854    0.1098 C   0  0  0  0  0  0  0  0  0  0  0  0
   -1.9293   -1.1187   -0.0101 N   0  0  0  0  0  0  0  0  0  0  0  0
   -3.2427   -0.7672   -0.5393 C   0  0  0  0  0  0  0  0  0  0  0  0
   -3.7891   -1.9604   -1.3271 C   0  0  0  0  0  0  0  0  0  0  0  0
   -4.1951   -0.4308    0.6081 C   0  0  0  0  0  0  0  0  0  0  0  0
   -1.4052    1.1499    0.3597 N   0  0  0  0  0  0  0  0  0  0  0  0
    1.3875    4.3416    1.0268 H   0  0  0  0  0  0  0  0  0  0  0  0
    0.3790    5.6854    0.4673 H   0  0  0  0  0  0  0  0  0  0  0  0
    0.8418    4.4120   -0.6750 H   0  0  0  0  0  0  0  0  0  0  0  0
    3.0029    1.0375    0.3542 H   0  0  0  0  0  0  0  0  0  0  0  0
    2.3387   -1.4654    1.1686 H   0  0  0  0  0  0  0  0  0  0  0  0
    3.5635   -1.6666   -1.6522 H   0  0  0  0  0  0  0  0  0  0  0  0
    3.3099   -3.0211   -0.5362 H   0  0  0  0  0  0  0  0  0  0  0  0
    1.9254   -2.1635   -1.2225 H   0  0  0  0  0  0  0  0  0  0  0  0
    4.7679   -1.9326    1.2169 H   0  0  0  0  0  0  0  0  0  0  0  0
    4.4284   -0.2803    1.7573 H   0  0  0  0  0  0  0  0  0  0  0  0
    5.0753   -0.5592    0.1357 H   0  0  0  0  0  0  0  0  0  0  0  0
   -1.4415   -1.8667   -0.4925 H   0  0  0  0  0  0  0  0  0  0  0  0
   -3.1817    0.0823   -1.2321 H   0  0  0  0  0  0  0  0  0  0  0  0
   -4.7802   -1.7377   -1.7361 H   0  0  0  0  0  0  0  0  0  0  0  0
   -3.1271   -2.2080   -2.1644 H   0  0  0  0  0  0  0  0  0  0  0  0
   -3.8719   -2.8526   -0.6962 H   0  0  0  0  0  0  0  0  0  0  0  0
   -3.8506    0.4388    1.1764 H   0  0  0  0  0  0  0  0  0  0  0  0
   -4.2815   -1.2674    1.3108 H   0  0  0  0  0  0  0  0  0  0  0  0
   -5.1963   -0.2028    0.2274 H   0  0  0  0  0  0  0  0  0  0  0  0
  1  2  1  0
  1  3  1  0
  3  4  2  0
  4  5  1  0
  5  6  1  0
  6  7  1  0
  7  8  1  0
  7  9  1  0
  5 10  2  0
 10 11  1  0
 11 12  1  0
 12 13  1  0
 13 14  1  0
 13 15  1  0
 11 16  2  0
 16  3  1  0
  2 17  1  0
  2 18  1  0
  2 19  1  0
  6 20  1  0
  7 21  1  0
  8 22  1  0
  8 23  1  0
  8 24  1  0
  9 25  1  0
  9 26  1  0
  9 27  1  0
 12 28  1  0
 13 29  1  0
 14 30  1  0
 14 31  1  0
 14 32  1  0
 15 33  1  0
 15 34  1  0
 15 35  1  0
M  END
$$$$
