
     RDKit          3D

 35 35  0  0  0  0  0  0  0  0999 V2000
    0.9468    3.0787    2.0339 S   0  0  0  0  0  0  0  0  0  0  0  0
   -0.4456    4.2010    1.7628 C   0  0  0  0  0  0  0  0  0  0  0  0
    0.4491    1.7029    1.0188 C   0  0  0  0  0  0  0  0  0  0  0  0
    1.3926    0.8090    0.7535 N   0  0  0  0  0  0  0  0  0  0  0  0
    1.0075   -0.2089    0.0040 C   0  0  0  0  0  0  0  0  0  0  0  0
    1.8987   -1.2190   -0.3366 N   0  0  0  0  0  0  0  0  0  0  0  0
    3.2998   -0.8370   -0.4756 C   0  0  0  0  0  0  0  0  0  0  0  0
    4.0283   -1.0306    0.8544 C   0  0  0  0  0  0  0  0  0  0  0  0
    3.9446   -1.7194   -1.5473 C   0  0  0  0  0  0  0  0  0  0  0  0
   -0.2200   -0.3556   -0.4725 N   0  0  0  0  0  0  0  0  0  0  0  0
   -1.0941    0.5873   -0.1480 C   0  0  0  0  0  0  0  0  0  0  0  0
   -2.4021    0.5183   -0.6014 N   0  0  0  0  0  0  0  0  0  0  0  0
   -2.9771   -0.8060   -0.8021 C   0  0  0  0  0  0  0  0  0  0  0  0
   -4.2531   -0.6471   -1.6301 C   0  0  0  0  0  0  0  0  0  0  0  0
   -3.3013   -1.4671    0.5377 C   0  0  0  0  0  0  0  0  0  0  0  0
   -0.8091    1.6402    0.5989 N   0  0  0  0  0  0  0  0  0  0  0  0
   -0.2543    5.1381    2.2931 H   0  0  0  0  0  0  0  0  0  0  0  0
   -0.5615    4.4272    0.6991 H   0  0  0  0  0  0  0  0  0  0  0  0
   -1.3734    3.7728    2.1524 H   0  0  0  0  0  0  0  0  0  0  0  0
    1.4857   -1.6923   -1.1338 H   0  0  0  0  0  0  0  0  0  0  0  0
    3.4006    0.2052   -0.8056 H   0  0  0  0  0  0  0  0  0  0  0  0
    3.9511   -2.0670    1.2023 H   0  0  0  0  0  0  0  0  0  0  0  0
    5.0908   -0.7846    0.7544 H   0  0  0  0  0  0  0  0  0  0  0  0
    3.6123   -0.3908    1.6389 H   0  0  0  0  0  0  0  0  0  0  0  0
    5.0023   -1.4673   -1.6767 H   0  0  0  0  0  0  0  0  0  0  0  0
    3.8755   -2.7815   -1.2861 H   0  0  0  0  0  0  0  0  0  0  0  0
    3.4453   -1.5837   -2.5132 H   0  0  0  0  0  0  0  0  0  0  0  0
   -2.9546    1.1589   -0.0427 H   0  0  0  0  0  0  0  0  0  0  0  0
   -2.2961   -1.4492   -1.3731 H   0  0  0  0  0  0  0  0  0  0  0  0
   -4.0325   -0.1793   -2.5960 H   0  0  0  0  0  0  0  0  0  0  0  0
   -4.7167   -1.6201   -1.8238 H   0  0  0  0  0  0  0  0  0  0  0  0
   -4.9872   -0.0153   -1.1173 H   0  0  0  0  0  0  0  0  0  0  0  0
   -2.3954   -1.6298    1.1311 H   0  0  0  0  0  0  0  0  0  0  0  0
   -3.7776   -2.4413    0.3848 H   0  0  0  0  0  0  0  0  0  0  0  0
   -3.9796   -0.8469    1.1345 H   0  0  0  0  0  0  0  0  0  0  0  0
  1  2  1  0
  1  3  1  0
  3  4  2  0
  4  5  1  0
  5  6  1  0
  6  7  1  0
  7  8  1  0
  7  9  1  0
  5 10  2  0
 10 11  1  0
 11 12  1  0
 12 13  1  0
 13 14  1  0
 13 15  1  0
 11 16  2  0
 16  3  1  0
  2 17  1  0
  2 18  1  0
  2 19  1  0
  6 20  1  0
  7 21  1  0
  8 22  1  0
  8 23  1  0
  8 24  1  0
  9 25  1  0
  9 26  1  0
  9 27  1  0
 12 28  1  0
 13 29  1  0
 14 30  1  0
 14 31  1  0
 14 32  1  0
 15 33  1  0
 15 34  1  0
 15 35  1  0
M  END
$$$$
