12

C -1.332367 0.429371 -0.000011
C -0.294336 1.368483 -0.000007
C 1.038025 0.939164 -0.000007
C 1.332367 -0.429371 0.000023
C 0.294336 -1.368483 0.000032
C -1.038025 -0.939164 -0.000057
H -2.367163 0.762839 0.000404
H -0.522946 2.431380 -0.000146
H 1.844200 1.668601 -0.000031
H 2.367163 -0.762839 0.000078
H 0.522946 -2.431380 -0.000065
H -1.844201 -1.668601 -0.00007612