35

S 0.055973 3.023263 -0.141383
C 1.846928 3.375152 -0.143967
C -0.001167 1.246620 -0.133311
N -1.245849 0.760070 -0.130441
C -1.305167 -0.593787 -0.131654
N -2.519847 -1.188129 -0.159962
C -3.816988 -0.514551 -0.028958
C -4.861127 -1.277839 -0.850498
C -4.229297 -0.378375 1.444914
N -0.232994 -1.411518 -0.123339
C 0.960488 -0.790070 -0.125373
N 2.058627 -1.578025 -0.141043
C 3.450756 -1.128382 -0.022462
C 3.879671 -1.017354 1.448608
C 4.351140 -2.081975 -0.814518
N 1.136074 0.558499 -0.127858
H 1.930852 4.465176 -0.154148
H 2.324247 2.961722 -1.034038
H 2.323982 2.978450 0.753763
H -2.502361 -2.198824 -0.083607
H -3.687885 0.484050 -0.453778
H -4.980498 -2.304489 -0.479814
H -4.574186 -1.323668 -1.906817
H -5.834672 -0.781257 -0.777452
H -4.361513 -1.366403 1.903759
H -5.177225 0.166721 1.527696
H -3.468471 0.167615 2.013201
H 1.874055 -2.572088 -0.066345
H 3.492515 -0.135753 -0.477803
H 3.842347 -1.997916 1.939749
H 3.222290 -0.331926 1.994237
H 4.906304 -0.638445 1.519311
H 4.297993 -3.101369 -0.410039
H 5.393983 -1.752741 -0.753963
H 4.059164 -2.113971 -1.869985